
     RDKit          3D

  7  7  0  0  0  0  0  0  0  0999 V2000
   -2.8917   33.4559   39.2591 O   0  0  0  0  0  0  0  0  0  0  0  0
   -4.2189   33.7356   39.4223 C   0  0  0  0  0  0  0  0  0  0  0  0
   -5.1955   33.3683   38.4678 C   0  0  0  0  0  0  0  0  0  0  0  0
   -4.6033   34.4240   40.5786 C   0  0  0  0  0  0  0  0  0  0  0  0
   -5.9497   34.7483   40.7942 C   0  0  0  0  0  0  0  0  0  0  0  0
   -6.9427   34.3898   39.8541 C   0  0  0  0  0  0  0  0  0  0  0  0
   -6.5484   33.7114   38.6754 C   0  0  0  0  0  0  0  0  0  0  0  0
  1  2  1  0
  2  3  2  0
  2  4  1  0
  4  5  2  0
  5  6  1  0
  3  7  1  0
  6  7  2  0
M  END
